Version 4
SHEET 1 1824 680
WIRE -720 -1312 -752 -1312
WIRE -752 -1280 -752 -1312
WIRE -752 -1280 -784 -1280
WIRE -720 -1280 -720 -1312
WIRE -960 -1264 -1056 -1264
WIRE -848 -1264 -960 -1264
WIRE -672 -1248 -784 -1248
WIRE -640 -1248 -672 -1248
WIRE -960 -1216 -960 -1264
WIRE -672 -1200 -672 -1248
WIRE -144 -1184 -256 -1184
WIRE -144 -1152 -144 -1184
WIRE -960 -1136 -960 -1152
WIRE -672 -1120 -672 -1136
WIRE -256 -1088 -256 -1184
WIRE -256 -1088 -416 -1088
WIRE -1840 -1072 -1888 -1072
WIRE -2032 -1056 -2080 -1056
WIRE -1936 -1056 -1984 -1056
WIRE -1888 -1056 -1888 -1072
WIRE -864 -1040 -944 -1040
WIRE -736 -1040 -784 -1040
WIRE -672 -1040 -736 -1040
WIRE -496 -1040 -592 -1040
WIRE -384 -1040 -496 -1040
WIRE -224 -1040 -304 -1040
WIRE -736 -1024 -736 -1040
WIRE -944 -1008 -944 -1040
WIRE -416 -992 -416 -1088
WIRE -2032 -976 -2032 -1056
WIRE -1984 -976 -2032 -976
WIRE -1936 -976 -1936 -1056
WIRE -1888 -976 -1936 -976
WIRE -496 -976 -496 -1040
WIRE -448 -976 -496 -976
WIRE -2080 -960 -2080 -976
WIRE -224 -960 -224 -1040
WIRE -224 -960 -384 -960
WIRE -192 -960 -224 -960
WIRE -448 -944 -608 -944
WIRE -736 -912 -736 -944
WIRE -416 -896 -416 -928
WIRE -1168 -880 -1232 -880
WIRE -1008 -880 -1104 -880
WIRE -832 -880 -1008 -880
WIRE -864 -864 -928 -864
WIRE -864 -848 -864 -864
WIRE -2032 -768 -2096 -768
WIRE -928 -768 -928 -864
WIRE -1008 -752 -1008 -880
WIRE -960 -752 -1008 -752
WIRE -832 -736 -832 -880
WIRE -832 -736 -896 -736
WIRE -704 -736 -832 -736
WIRE -608 -736 -608 -944
WIRE -608 -736 -704 -736
WIRE -2032 -720 -2032 -768
WIRE -1920 -720 -1952 -720
WIRE -1344 -720 -1424 -720
WIRE -1232 -720 -1232 -880
WIRE -1232 -720 -1264 -720
WIRE -1184 -720 -1232 -720
WIRE -1056 -720 -1104 -720
WIRE -960 -720 -1056 -720
WIRE -1056 -688 -1056 -720
WIRE -928 -672 -928 -704
WIRE -1888 -608 -1936 -608
WIRE -1056 -592 -1056 -624
FLAG -2080 -960 0
FLAG -1840 -1072 Stimulus
FLAG -1920 -720 9V
IOPIN -1920 -720 Out
FLAG -2096 -688 0
FLAG -1056 -1264 9V
IOPIN -1056 -1264 In
FLAG -1888 -608 Vout
IOPIN -1888 -608 Out
FLAG -1424 -720 Stimulus
FLAG -416 -896 0
FLAG -192 -960 Vout
IOPIN -192 -960 Out
FLAG -736 -912 0
FLAG -720 -1280 0
FLAG -640 -1248 5V
IOPIN -640 -1248 Out
FLAG -960 -1136 0
FLAG -672 -1120 0
FLAG -144 -1152 5V
IOPIN -144 -1152 In
FLAG -944 -1008 5V
IOPIN -944 -1008 In
FLAG -1056 -592 0
FLAG -928 -672 0
FLAG -864 -848 5V
IOPIN -864 -848 In
FLAG -704 -736 filtered_stimilus
SYMBOL voltage -1984 -1072 R0
WINDOW 123 0 0 Left 0
WINDOW 39 0 0 Left 0
WINDOW 3 -89 197 Left 2
WINDOW 0 -13 54 Left 2
SYMATTR Value PWL file=PWLinput.csv
SYMATTR InstName V2
SYMBOL voltage -1888 -1072 R0
WINDOW 123 24 44 Left 2
WINDOW 39 0 0 Left 0
WINDOW 3 -386 233 Left 2
WINDOW 0 -11 56 Left 2
SYMATTR Value SINE({sineOffset} {sineAmplitude} {sineFreq})
SYMATTR InstName V3
SYMBOL voltage -2080 -1072 R0
WINDOW 123 0 0 Left 0
WINDOW 39 0 0 Left 0
WINDOW 3 3 160 Left 2
WINDOW 0 -13 55 Left 2
SYMATTR Value {dcAmplitude}
SYMATTR InstName V1
SYMBOL voltage -2096 -784 R0
WINDOW 123 24 44 Left 2
WINDOW 39 0 0 Left 0
WINDOW 3 -46 76 Left 2
WINDOW 0 -13 57 Left 2
SYMATTR Value 9
SYMATTR InstName V4
SYMBOL res -1936 -736 R90
WINDOW 0 -9 30 VBottom 2
WINDOW 3 34 56 VTop 2
SYMATTR InstName R_Sense
SYMATTR Value 0.010
SYMBOL Opamps\\opamp2 -416 -1024 R0
SYMATTR InstName U1
SYMATTR Value TLC2272
SYMBOL res -288 -1056 R90
WINDOW 0 0 56 VBottom 2
WINDOW 3 32 56 VTop 2
SYMATTR InstName Rf
SYMATTR Value 1200k
SYMBOL res -576 -1056 R90
WINDOW 0 0 56 VBottom 2
WINDOW 3 32 56 VTop 2
SYMATTR InstName Rg
SYMATTR Value 30k
SYMBOL res -752 -1040 R0
SYMATTR InstName R4
SYMATTR Value 1k
SYMBOL res -768 -1056 R90
WINDOW 0 0 56 VBottom 2
WINDOW 3 32 56 VTop 2
SYMATTR InstName R5
SYMATTR Value 4.2561k
SYMBOL cap -976 -1216 R0
SYMATTR InstName C1
SYMATTR Value 100n
SYMBOL cap -688 -1200 R0
SYMATTR InstName C2
SYMATTR Value 100n
SYMBOL Opamps\\opamp2 -928 -800 R0
SYMATTR InstName U3
SYMATTR Value TLC2272
SYMBOL cap -1072 -688 R0
SYMATTR InstName C3
SYMATTR Value 10n
SYMBOL res -1088 -736 R90
WINDOW 0 0 56 VBottom 2
WINDOW 3 32 56 VTop 2
SYMATTR InstName R1
SYMATTR Value 2780k
SYMBOL res -1248 -736 R90
WINDOW 0 0 56 VBottom 2
WINDOW 3 32 56 VTop 2
SYMATTR InstName R2
SYMATTR Value 99.6k
SYMBOL cap -1104 -896 R90
WINDOW 0 0 32 VBottom 2
WINDOW 3 32 32 VTop 2
SYMATTR InstName C4
SYMATTR Value 100n
SYMBOL AutoGenerated\\LM7805 -816 -1264 R0
SYMATTR InstName U2
TEXT -2080 -1120 Left 2 !.tran 0 {transtop} 0 {timestep}
TEXT -1952 -1168 Left 2 !.include E344cfg.txt
TEXT -2288 -1384 Left 2 ;Don't change these -- used for auto-assessments.\nYou may modify input files while developing.\nFor submission: \n  * Use only 9V supply \n  * Connect "Stimulus" to your input\n  * Connect "Vout" to your output.\n  * Only one label name per net.
TEXT -2280 -1168 Left 2 ;Config file:
TEXT -2280 -1120 Left 2 ;Analysis setup:
TEXT -2272 -744 Left 2 ;Battery
TEXT -2280 -1032 Left 2 ;Sensor-\nemulating \nstimulus
TEXT -2272 -608 Left 2 ;Assessed nets:\nConnect to your outputs
TEXT -1552 -1400 Left 2 ;E. Stewdent.,  00024601\nV(0degV) = 420 mV\ndeltaV/degV = 15 mV
TEXT -856 -1400 Left 2 !.incl TL081.LIB
TEXT -856 -1424 Left 2 !.incl TLC2272.LIB
TEXT -856 -1448 Left 2 !.incl LM78XX RS.LIB
LINE Normal -1792 -1008 -1856 -1008 2
LINE Normal -1792 -864 -1792 -1008 2
LINE Normal -1808 -880 -1792 -864 2
LINE Normal -1792 -864 -1808 -880 2
LINE Normal -1776 -880 -1792 -864 2
LINE Normal -2128 -1008 -2112 -1008 2
LINE Normal -2128 -928 -2128 -1008 2
LINE Normal -2128 -912 -2128 -928 2
LINE Normal -2096 -912 -2128 -912 2
LINE Normal -2112 -928 -2096 -912 2
LINE Normal -2096 -912 -2112 -928 2
LINE Normal -2112 -896 -2096 -912 2
LINE Normal -1968 -944 -1968 -992 2
LINE Normal -1856 -944 -1968 -944 2
LINE Normal -1856 -896 -1856 -944 2
LINE Normal -1872 -912 -1856 -896 2
LINE Normal -1856 -896 -1872 -912 2
LINE Normal -1840 -912 -1856 -896 2
LINE Normal -2304 -544 -2304 -1408 1
LINE Normal -1680 -1408 -1680 -544 1
LINE Normal -1680 -544 -2304 -544 1
LINE Normal -1680 -1408 -2304 -1408 1
