Version 4
SHEET 1 1824 680
WIRE -1136 -1200 -1216 -1200
WIRE -960 -1200 -1056 -1200
WIRE -848 -1200 -960 -1200
WIRE -656 -1200 -720 -1200
WIRE -624 -1200 -656 -1200
WIRE -960 -1152 -960 -1200
WIRE -656 -1152 -656 -1200
WIRE -160 -1088 -272 -1088
WIRE -1840 -1072 -1888 -1072
WIRE -960 -1072 -960 -1088
WIRE -784 -1072 -784 -1136
WIRE -656 -1072 -656 -1088
WIRE -2032 -1056 -2080 -1056
WIRE -1936 -1056 -1984 -1056
WIRE -1888 -1056 -1888 -1072
WIRE -160 -1056 -160 -1088
WIRE -272 -992 -272 -1088
WIRE -272 -992 -432 -992
WIRE -2032 -976 -2032 -1056
WIRE -1984 -976 -2032 -976
WIRE -1936 -976 -1936 -1056
WIRE -1888 -976 -1936 -976
WIRE -2080 -960 -2080 -976
WIRE -880 -944 -960 -944
WIRE -752 -944 -800 -944
WIRE -688 -944 -752 -944
WIRE -512 -944 -608 -944
WIRE -400 -944 -512 -944
WIRE -240 -944 -320 -944
WIRE -752 -928 -752 -944
WIRE -960 -912 -960 -944
WIRE -432 -896 -432 -992
WIRE -512 -880 -512 -944
WIRE -464 -880 -512 -880
WIRE -240 -864 -240 -944
WIRE -240 -864 -400 -864
WIRE -208 -864 -240 -864
WIRE -464 -848 -624 -848
WIRE -752 -816 -752 -848
WIRE -432 -800 -432 -832
WIRE -2032 -768 -2096 -768
WIRE -736 -768 -944 -768
WIRE -736 -752 -736 -768
WIRE -2032 -720 -2032 -768
WIRE -1920 -720 -1952 -720
WIRE -816 -688 -1024 -688
WIRE -944 -640 -944 -768
WIRE -1024 -624 -1024 -688
WIRE -976 -624 -1024 -624
WIRE -1888 -608 -1936 -608
WIRE -816 -608 -816 -688
WIRE -816 -608 -912 -608
WIRE -768 -608 -816 -608
WIRE -624 -608 -624 -848
WIRE -624 -608 -688 -608
WIRE -1296 -592 -1472 -592
WIRE -1152 -592 -1216 -592
WIRE -976 -592 -1152 -592
WIRE -624 -576 -624 -608
WIRE -944 -560 -944 -576
WIRE -1152 -544 -1152 -592
WIRE -624 -480 -624 -512
WIRE -1152 -432 -1152 -480
FLAG -2080 -960 0
FLAG -1840 -1072 Stimulus
FLAG -1920 -720 9V
IOPIN -1920 -720 Out
FLAG -2096 -688 0
FLAG -1216 -1200 9V
IOPIN -1216 -1200 In
FLAG -1888 -608 Vout
IOPIN -1888 -608 Out
FLAG -1472 -592 Stimulus
FLAG -432 -800 0
FLAG -208 -864 Vout
IOPIN -208 -864 Out
FLAG -752 -816 0
FLAG -784 -1072 0
FLAG -624 -1200 5V
IOPIN -624 -1200 Out
FLAG -960 -1072 0
FLAG -656 -1072 0
FLAG -160 -1056 5V
IOPIN -160 -1056 In
FLAG -960 -912 5V
IOPIN -960 -912 In
FLAG -1152 -432 0
FLAG -944 -560 0
FLAG -624 -480 0
FLAG -736 -752 5V
IOPIN -736 -752 In
SYMBOL voltage -1984 -1072 R0
WINDOW 123 0 0 Left 0
WINDOW 39 0 0 Left 0
WINDOW 3 -89 197 Left 2
WINDOW 0 -13 54 Left 2
SYMATTR Value PWL file=PWLinput.csv
SYMATTR InstName V2
SYMBOL voltage -1888 -1072 R0
WINDOW 123 24 44 Left 2
WINDOW 39 0 0 Left 0
WINDOW 3 -386 233 Left 2
WINDOW 0 -11 56 Left 2
SYMATTR Value SINE({sineOffset} {sineAmplitude} {sineFreq})
SYMATTR InstName V3
SYMBOL voltage -2080 -1072 R0
WINDOW 123 0 0 Left 0
WINDOW 39 0 0 Left 0
WINDOW 3 3 160 Left 2
WINDOW 0 -13 55 Left 2
SYMATTR Value {dcAmplitude}
SYMATTR InstName V1
SYMBOL voltage -2096 -784 R0
WINDOW 123 24 44 Left 2
WINDOW 39 0 0 Left 0
WINDOW 3 -46 76 Left 2
WINDOW 0 -13 57 Left 2
SYMATTR Value 9
SYMATTR InstName V4
SYMBOL res -1936 -736 R90
WINDOW 0 -9 30 VBottom 2
WINDOW 3 34 56 VTop 2
SYMATTR InstName R_Sense
SYMATTR Value 0.010
SYMBOL Opamps\\opamp2 -432 -928 R0
SYMATTR InstName U1
SYMATTR Value TLC2272
SYMBOL res -304 -960 R90
WINDOW 0 0 56 VBottom 2
WINDOW 3 32 56 VTop 2
SYMATTR InstName Rf1
SYMATTR Value 1170k
SYMBOL res -592 -960 R90
WINDOW 0 0 56 VBottom 2
WINDOW 3 32 56 VTop 2
SYMATTR InstName Rg1
SYMATTR Value 30k
SYMBOL res -768 -944 R0
SYMATTR InstName R4
SYMATTR Value 1k
SYMBOL res -784 -960 R90
WINDOW 0 0 56 VBottom 2
WINDOW 3 32 56 VTop 2
SYMATTR InstName R5
SYMATTR Value 4.2561k
SYMBOL AutoGenerated\\LM7805 -752 -1168 R0
SYMATTR InstName U2
SYMBOL cap -976 -1152 R0
SYMATTR InstName C1
SYMATTR Value 100n
SYMBOL cap -672 -1152 R0
SYMATTR InstName C2
SYMATTR Value 100n
SYMBOL res -1200 -608 R90
WINDOW 0 0 56 VBottom 2
WINDOW 3 32 56 VTop 2
SYMATTR InstName R1
SYMATTR Value 317k
SYMBOL cap -1168 -544 R0
SYMATTR InstName C3
SYMATTR Value 100n
SYMBOL Opamps\\opamp2 -944 -672 R0
SYMATTR InstName U3
SYMATTR Value TLC2272
SYMBOL res -672 -624 R90
WINDOW 0 0 56 VBottom 2
WINDOW 3 32 56 VTop 2
SYMATTR InstName R2
SYMATTR Value 9.55k
SYMBOL cap -640 -576 R0
SYMATTR InstName C4
SYMATTR Value 1µ
SYMBOL voltage -1152 -1200 R270
WINDOW 0 32 56 VTop 2
WINDOW 3 -32 56 VBottom 2
WINDOW 123 0 0 Left 0
WINDOW 39 0 0 Left 0
SYMATTR InstName V5
SYMATTR Value 0
TEXT -2080 -1120 Left 2 !.tran 0 {transtop} 0 {timestep}
TEXT -1952 -1168 Left 2 !.include E344cfg.txt
TEXT -2288 -1384 Left 2 ;Don't change these -- used for auto-assessments.\nYou may modify input files while developing.\nFor submission: \n  * Use only 9V supply \n  * Connect "Stimulus" to your input\n  * Connect "Vout" to your output.\n  * Only one label name per net.
TEXT -2280 -1168 Left 2 ;Config file:
TEXT -2280 -1120 Left 2 ;Analysis setup:
TEXT -2272 -744 Left 2 ;Battery
TEXT -2280 -1032 Left 2 ;Sensor-\nemulating \nstimulus
TEXT -2272 -608 Left 2 ;Assessed nets:\nConnect to your outputs
TEXT -1552 -1400 Left 2 ;E. Stewdent.,  00024601\nV(0degV) = 420 mV\ndeltaV/degV = 15 mV
TEXT -840 -1368 Left 2 !.incl TL081.LIB
TEXT -832 -1344 Left 2 !.incl TLC2272.LIB
TEXT -824 -1320 Left 2 !.incl LM78XX RS.LIB
LINE Normal -1792 -1008 -1856 -1008 2
LINE Normal -1792 -864 -1792 -1008 2
LINE Normal -1808 -880 -1792 -864 2
LINE Normal -1792 -864 -1808 -880 2
LINE Normal -1776 -880 -1792 -864 2
LINE Normal -2128 -1008 -2112 -1008 2
LINE Normal -2128 -928 -2128 -1008 2
LINE Normal -2128 -912 -2128 -928 2
LINE Normal -2096 -912 -2128 -912 2
LINE Normal -2112 -928 -2096 -912 2
LINE Normal -2096 -912 -2112 -928 2
LINE Normal -2112 -896 -2096 -912 2
LINE Normal -1968 -944 -1968 -992 2
LINE Normal -1856 -944 -1968 -944 2
LINE Normal -1856 -896 -1856 -944 2
LINE Normal -1872 -912 -1856 -896 2
LINE Normal -1856 -896 -1872 -912 2
LINE Normal -1840 -912 -1856 -896 2
LINE Normal -2304 -544 -2304 -1408 1
LINE Normal -1680 -1408 -1680 -544 1
LINE Normal -1680 -544 -2304 -544 1
LINE Normal -1680 -1408 -2304 -1408 1
